/*--------------------------------*- C++ -*----------------------------------*\
  =========                 |
  \\      /  F ield         | OpenFOAM: The Open Source CFD Toolbox
   \\    /   O peration     | Website:  https://openfoam.org
    \\  /    A nd           | Version:  8
     \\/     M anipulation  |
\*---------------------------------------------------------------------------*/
FoamFile
{
    version     2.0;
    format      ascii;
    class       dictionary;
    location    "system";
    object      setFieldsDict;
}
// * * * * * * * * * * * * * * * * * * * * * * * * * * * * * * * * * * * * * //

defaultFieldValues
(
    volScalarFieldValue alpha.water 0
);

/*
regions
(
    sphereToCell
    {
        centre (2 3 0);
        radius 200;
	fieldValues
        (
            volScalarFieldValue alpha.water 1
        );
    }
);
*/

regions
(
    cylinderToCell
    {
        p1 (0.05 -0.01 -1); p2 (0.05 -0.01 1); radius 0.0015;
	fieldValues
        (
            volScalarFieldValue alpha.water 1
            volVectorFieldValue U (0 0 0)
        );
    }
);

/*
regions
(
    boxToCell
    {
        box (0 0 -1) (0.1461 0.292 1);
        fieldValues
        (
            volScalarFieldValue alpha.water 1
        );
    }
);
*/

// ************************************************************************* //
